Version 4
SHEET 1 1072 680
WIRE 0 -192 -32 -192
WIRE 128 -192 80 -192
WIRE 272 -192 224 -192
WIRE 400 -192 352 -192
WIRE 848 -144 848 -192
WIRE -496 -128 -496 -192
WIRE 992 -64 992 -192
WIRE -496 -32 -496 -48
WIRE 848 -32 848 -64
WIRE 848 -32 800 -32
WIRE 80 -16 80 -64
WIRE -32 0 -32 -192
WIRE 48 0 -32 0
WIRE 352 0 352 -64
WIRE 848 0 848 -32
WIRE 128 16 128 -192
WIRE 128 16 112 16
WIRE 224 16 224 -192
WIRE 224 16 128 16
WIRE 320 16 224 16
WIRE 48 32 16 32
WIRE 400 32 400 -192
WIRE 400 32 384 32
WIRE 448 32 400 32
WIRE 320 48 288 48
WIRE -496 64 -496 32
WIRE -32 64 -32 0
WIRE -32 80 -32 64
WIRE -688 112 -704 112
WIRE -560 112 -608 112
WIRE 80 112 80 48
WIRE 352 112 352 64
WIRE 848 128 848 80
WIRE 992 128 992 16
WIRE -32 192 -32 144
WIRE 16 192 16 32
WIRE 288 192 288 48
WIRE -496 272 -496 160
FLAG 992 128 0
FLAG 800 -32 1.65V
IOPIN 800 -32 Out
FLAG 992 -192 3.3V
IOPIN 992 -192 Out
FLAG 80 112 1.65V
IOPIN 80 112 In
FLAG 352 112 1.65V
IOPIN 352 112 In
FLAG 448 32 Output
IOPIN 448 32 Out
FLAG 16 192 0
FLAG 288 192 0
FLAG 848 -192 3.3V
IOPIN 848 -192 In
FLAG 80 -64 3.3V
IOPIN 80 -64 In
FLAG -32 192 0
FLAG -496 -192 3.3V
IOPIN -496 -192 In
FLAG -496 272 0
FLAG -704 112 3.3V
IOPIN -704 112 In
FLAG 848 128 0
FLAG 352 -64 3.3V
IOPIN 352 -64 In
SYMBOL res 96 -208 R90
WINDOW 0 0 56 VBottom 2
WINDOW 3 32 56 VTop 2
SYMATTR InstName R1
SYMATTR Value 22
SYMBOL res 368 -208 R90
WINDOW 0 0 56 VBottom 2
WINDOW 3 32 56 VTop 2
SYMATTR InstName R2
SYMATTR Value 10
SYMBOL OpAmps\\OP07 80 -48 R0
WINDOW 0 -50 11 Left 2
SYMATTR InstName U1
SYMBOL OpAmps\\OP07 352 -32 R0
WINDOW 0 -54 11 Left 2
SYMATTR InstName U2
SYMBOL res 832 -160 R0
SYMATTR InstName R3
SYMATTR Value 10
SYMBOL res 832 -16 R0
SYMATTR InstName R4
SYMATTR Value 10
SYMBOL voltage 992 -80 R0
WINDOW 123 0 0 Left 0
WINDOW 39 0 0 Left 0
SYMATTR InstName V1
SYMATTR Value 3.3V
SYMBOL current -32 144 R180
WINDOW 0 24 80 Left 2
WINDOW 3 24 0 Left 2
WINDOW 123 0 0 Left 0
WINDOW 39 0 0 Left 0
SYMATTR InstName I1
SYMATTR Value 0.000050
SYMBOL res -512 -144 R0
SYMATTR InstName R5
SYMATTR Value 10
SYMBOL res -592 96 R90
WINDOW 0 0 56 VBottom 2
WINDOW 3 32 56 VTop 2
SYMATTR InstName R6
SYMATTR Value 150
SYMBOL Contrib\\Toshiba\\bjt\\TDTC114Y -560 64 R0
SYMATTR InstName U3
SYMBOL LED -512 -32 R0
SYMATTR InstName D1
TEXT -820 296 Left 2 !.tran 10
